
# Table of Contents

1.  [Background](#org0b87d06):personal:
2.  [Administrative](#org5508e47):admin:
    1.  [Student Number](#org5e46552):admin:numbers:
    2.  [Student Universal Identifier (USI)](#org0c5ee45):admin:numbers:
    3.  [Supervisors/Advisors/GRC](#org92c4c63):contacts:
        1.  [Primary](#orgf40f2cf)
        2.  [Secondary](#org855b9cc)
        3.  [Graduate Research Coordinator](#orgf46f9c8)
    4.  [Student Systems and Support Servies](#org7ee3e46):bookmark:
        1.  [iGrad](#orgeca0dcb):bookmark:admin:utas:
        2.  [eStudent Login](#org27a9fe7):bookmark:admin:utas:
        3.  [My Learning Online (MyLO)](#orgfab701e):bookmark:admin:utas:
        4.  [Student Services and Amenities Fee (SSAF)](#org7920bb2):bookmark:utas:
    5.  [Graduate Research Office](#org0522669):contact:admin:
    6.  [Institute of Marine and Antarctic Studies (IMAS)](#orga538464)
        1.  [Key Personnel](#org6bc9139)
        2.  [Commencement](#orgf06f973)
    7.  [Funding](#orgcaa1548):admin:
        1.  [ADF](#orgd4ec806):adf:admin:
        2.  [Scholarships](#org85499ea)
        3.  [Fellowships](#org93a3a39)
    8.  [Travel](#orgbfc9813):admin:
        1.  [Call Wen about July Travel Bookings](#orgcb28e03)
        2.  [Reoccurring](#org6502e0d)
        3.  [July 2021](#org5ea3ad7)
3.  [Research](#org378dceb):res:
    1.  [UTas Library Services](#org3a82326):bookmarks:
    2.  [Modelling](#orgca7aedf):modelling:
        1.  [CICE](#orgfd8b8d8):coupled:seaice:modelling:
        2.  [WAVEWATCH III](#orgfeaa2ec):bookmark:modelling:ocean:
        3.  [SWAN (Simulating WAves Nearshore)](#org264a4d4):bookmark:modelling:ocean:
        4.  [Weather Research & Forecasting (WRF) Model](#orgb048dfb):bookmark:modelling:atmo:
        5.  [Model Coupling Toolkit (MCT)](#org925925d):bookmark:modelling:atmo:
        6.  [COAWST](#orgfbb31d0):modelling:ocean:coupled:
        7.  [ROMS](#org0214408):ocean:modelling:
        8.  [METROMS](#orgb86f0de):coupled:atmo:ocean:modelling:
    3.  [Data](#org6f59388):data:
        1.  [Grids](#org4d09641)
        2.  [Atmospheric Reanalysis](#org77100ea):data:model:reanalysis:
        3.  [Fast Ice Distribution](#orge33e07e):data:derived:remote_sensing:
        4.  [Bathymetry and Topography](#org91618e1):bathy:topo:data:
        5.  [Sea Ice Remote Sensing](#orgee0d747):data:obs:remote_sensing:
        6.  [Australian Antarctic Data Centre (AADC)](#orgf523adf):data:obs:bookmark:
        7.  [Southern Ocean Observing System (SOOS)](#orgf7acb86):data:system:network:
    4.  [Research Plan 2.0](#org1bfe56c):plan:
    5.  [Candidature](#org90c0ea9):report:
        1.  [Meetings](#org47cf310)
        2.  [Ethics Approval](#org7110993)
        3.  [Confirmation of Candidature](#org702f6c2)
        4.  [Annual Review of Candidature](#org068ca58)
        5.  [Thesis Submission and Examination](#orgfcb662a)
        6.  [Step 1: Abstract](#org82c276f)
        7.  [Step 2: Thesis/Exegesis Submission](#orgc1fdd11)
        8.  [Step 3: Examiner Reports](#orgb4dd6b9)
        9.  [Step 4: Final Thesis/Exegesis Submission](#org93de1c2)
        10. [Step 5: Graduation](#org0b360c6)
4.  [Courses and Seminars](#org92f0ec3):course:
    1.  [AAD Seminar Series](#org8b7f166):seminar:virtual:
        1.  [Andrew Kelly &#x2013; CEO Antarctic Science Foundation](#org5166a3d)
    2.  [MyLO](#org1b81328):OLcourse:
        1.  [Getting Started with MyLO](#orgb075b33)
        2.  [Academic Integrity](#orgcecf9fb)
        3.  [Turnitin and Academic Writing](#org1dead8f)
    3.  [CORE UNITS](#org48d9996)
        1.  [XGR501](#org741daed):xgr501:OLcourse:
        2.  [XGR502](#orgf2f11b9):xgr502:OLcourse:
        3.  [QMS510 (Intro to QMS)](#org0617d85)
        4.  [QMS517 (Data Analysis Methods)](#org6863bbf)
    4.  [ELECTIVE UNITS](#orga9398b1)
        1.  [KSM310](#org539504e)
        2.  [Glacier Dynamics](#org4c2e091)
    5.  [GRANT Seminar](#org8010e22)
5.  [Meetings and Correspondence](#orgedc8c11):mtg:email:
    1.  [Introduction to Andrew Kiss](#orgb84a731):email:
    2.  [<span class="timestamp-wrapper"><span class="timestamp">[2022-03-31 Thu]</span></span>](#org2ff404c)
        1.  [Discussion Topics:](#orge0e4408)
    3.  [With Laura H-B](#org0e65613)
    4.  [Nicole Hill potential PhD project](#org2bc384e):mtg:
    5.  [People To Meet In Hobart](#org94ba2a5):mtg:hobart:
        1.  [Staff](#org002ac43):ppl:mtg:hobart:
        2.  [Students](#org41ee883):ppl:mtg:hobart:
    6.  [IMAS Monthly Sea Ice](#orgd9ed506)
        1.  [Jul21](#org27f0060)
        2.  [Jun21](#orge23e804)
        3.  [May21](#orgde4b687):zoom:
    7.  [EAFIM Regular Meeting](#org91141b9)
        1.  [Agenda <span class="timestamp-wrapper"><span class="timestamp">[2021-08-13 Fri 14:00]&#x2013;[2021-08-13 Fri 15:00]</span></span>](#org1979e60)
    8.  [PCC Welcome Meeting](#org2ef8400):admin:
        1.  [Meet with PCC (Karen Alexander)](#org6af8cb7)
        2.  [Discuss following topics](#orgf22ca48)
    9.  [GRC Welcome Meeting](#orgcee2f48):admin:
        1.  [The role of the GRC](#orga7484b5)
        2.  [The research plan, confirmation and annual review processes](#org437be5c)
        3.  [Leave entitlements](#org0b71482)
        4.  [Candidature timelines and scholarship requirements](#orgd09b7a0)
        5.  [Access to iGrad and action items](#orgf2d5e72)
        6.  [The Graduate Research website (forms, policies, procedures, etc.)](#orgc83749f)
        7.  [Meeting requirements and meeting records](#org351ca63)
        8.  [Compulsory and elective course work](#org6e81841)
    10. [Supervisor Welcome Meeting](#org7423df4):admin:
        1.  [Attendees](#org654de58)
        2.  [Agenda](#org07ef250)
    11. [Initial Meetings](#org779b839)
        1.  [Meeting with Alex Fraser and Paul Sandery](#orgb286c99)
        2.  [met with Richard Matear and Paul Sandery](#org973709c)
6.  [Computing](#orgd43d7d9):comp:
    1.  [GitHub](#orgb7c7bb3)
        1.  [Repository Initialisation <span class="timestamp-wrapper"><span class="timestamp">[2021-07-05 Mon]</span></span>](#orga9b3948)
    2.  [CloudStor](#org491500a)
    3.  [Remote Desktop](#orgd4081d5):vnc:remote_desktop:computer_admin:
        1.  [X2Go](#org8cbe41f)
    4.  [Microsoft](#org51fbe8a):bookmark:office:
    5.  [Tasmanian Partnership for Advancing Computing (TPAC)](#orgaa13b89):bookmark:
        1.  [Contact](#org0ab8eff)
        2.  [Nectar Cloud Starter Training](#org50cff8d)
    6.  [National eResearch Colloboration Tools And Resources (NECTAR)](#orgb61a9dc):bookmark:
        1.  [Compile METROMs in Sandbox](#org4d4626b)
        2.  [Attempting to login and play around](#org95ade2a)
        3.  [Training](#org77931b0)
        4.  [SEACLUB](#orgfcacf38)
        5.  [SEACLUB IP](#orgce66977):seaclub:ip:address:
        6.  [Linked **CLOUDSTOR** to *seaclub*](#org24ef48b)
        7.  [Installed Software](#orgb80d107)
    7.  [Kunanyi](#orgd995fb4)
7.  [Affiliations and Linkages](#org89406c9):colab:
    1.  [Antarctic and Sea Ice Experts](#orgda243db)
    2.  [Modelling Experts](#org3f85e2a)
    3.  [Institute of Low Temperature Science Hokkaido University](#orgfa0b48b)
        1.  [Kay Ohshima](#org23f7095):moorings:CTD:data:source:
    4.  [Australian Antarctic Program Project (AAPP)](#orgc7870b2):bookmark:
        1.  [AAPP Theme 3](#org64a4ea0)
        2.  [Personnel](#org51c4745)
    5.  [Consortium on Ocean-Sea Ice Modelling in Australia (COSIMA)](#orgb555a58):bookmark:
        1.  [ARC plan proposal](#orgd07a217):ref:pivotal:

<span class="underline">Technical Note</span>: This file is written in [Emacs-Org](https://orgmode.org) (which, as an
aside, I have been enamoured with for more years than I care to
admit). As such it is exported to the [markdown](https://www.markdownguide.org) language that is
favoured by <https://github.com>. However if one would like a slightly
more native experience to Emacs-Org then go [here](./README.md). Irrespective, this
README.md will be clobbered with each edit of its parent org file and
so if you are wanting to edit, edit the org file :) 


<a id="org0b87d06"></a>

# Background     :personal:

At the start of 2020 I decided to pursue a PhD in oceanography that
comprised [ocean modelling](http://www.cmar.csiro.au/staff/oke/pubs/England_and_Oke_2001.pdf), the [Southern Ocean](https://tos.org/oceanography/issue/volume-25-issue-03) and [Antarctica](https://www.scar.org). This was
spurned largely from my [previous](https://www.cencoos.org) [professional life](http://imos.org.au)
[coastal oceanographer](https://scripps.ucsd.edu/research/topics/coastal-oceanography). That previous pursuit centred mainly around a remote
sensing technology called [high frequency radar](https://tos.org/oceanography/assets/docs/10-2_paduan1.pdf) which is, and I used, in a
broad number of ways to understand the dynamics (the motion of the
of the upper ocean) through the digital application of signal
processing of the Physical representaiton of a Doppler shifted Bragg
frequency. After roughly 15 years in that field I left to diversify my
career skillset while ticking some service-related philosophies about
being [contributing to a new nation](https://en.wikipedia.org/wiki/National_service). After four years of [learning how-to drive Navy ships](https://www.navy.gov.au/sites/default/files/documents/Warfare_Officers_Career_Handbook.pdf) I
specialised as a [Meteorologic and Oceanographic Officer](https://www.defencejobs.gov.au/jobs/reserves/navy/meteorologist-and-oceanographer) in that
[organisation](https://www.navy.gov.au) and [operational-ised](https://www.youtube.com/watch?v=_1roFUwV7ss) my [scientific skillset](https://oceansci.ucsc.edu/academics/graduate/ms.html). At about the
same time I became fascinated with Antarctica and its criticality both
[climatically](https://tos.org/oceanography/article/southern-ocean-warming) and [strategically](https://www.antarctica.gov.au/about-us/antarctic-strategy-and-action-plan/). Hence I began searching for a PhD
project that would fulfil my interest.

Fortunately, it did not take too long before I was introduced to [Alex Fraser](https://tasmanian.com.au/stories/alex-fraser/) and [a project](./ResearchPlan/project_proposal/PROJECT_PROPOSAL.pdf) that he had on his digital shelf that from the outset ticked all my
interest boxes. I can't recall exactly where or when in I was introduced to the various forms of
[sea ice](https://en.wikipedia.org/wiki/Sea_ice) and [its role in polar oceanography](https://tos.org/oceanography/issue/volume-24-issue-03) but I do remember it
being very [Arctic-centric](http://nsidc.org/arcticseaicenews/) with this vague concept that [landfast sea ice (fast ice)](https://arctic.noaa.gov/Report-Card/Report-Card-2018/ArtMID/7878/ArticleID/788/Landfast-Sea-Ice-in-a-Changing-Arctic) played an important role in Arctic sea ice. So when Alex
provided me with a rough outline of the project he wanted to pursue
modelling fast ice and it being [largely neglected thus far](https://www.sciencedirect.com/user/identity/landing?code=2QD--DJX9fNQGcwrhJdFSQcbTnjTstfb_oMPFrXr&state=retryCounter%3D0%26csrfToken%3D282ae9df-d109-4361-a158-7399407fb2cd%26idpPolicy%3Durn%253Acom%253Aelsevier%253Aidp%253Apolicy%253Aproduct%253Ainst_assoc%26returnUrl%3D%252Fscience%252Farticle%252Fpii%252FS1463500321001712%26prompt%3Dnone%26cid%3Darp-05cb79cb-d88b-43bd-92e0-7af2740528af) in
circumpolar modelling efforts, I knew the meat on this bone was likely
well marbled.

So in mid-2021 I was accepted and enrolled as a part-time PhD student at
the [University of Tasmania](https://www.googleadservices.com/pagead/aclk?sa=L&ai=DChcSEwjb1_Cu-_j2AhWFmmYCHS-oCUAYABAAGgJzbQ&ohost=www.google.com&cid=CAESbeD2zyC-aH5iZzoJORucLfQbhrhY_ooy9py4o71TC_kz3xRqKOproNUbUwtZtC5573rDHXbolu_5OSzJ1IBTOd5vLU41bby25TJOXU74Xos06Noqir-L1xomT419-70EUgr0C5r7Znshu44t3TM&sig=AOD64_2ugbp2WvnZ4lnJ32JarlVkJGBBcA&q&adurl&ved=2ahUKEwjJxumu-_j2AhXm63MBHchuCCMQ0Qx6BAgDEAE) [Institute of Marine Science](https://www.imas.utas.edu.au) through the
[Australian Antarctic Partnership Program](https://aappartnership.org.au). I spent the second-half of
that year [reading](./references) and constructing an initial [Reasearch Plan](./ResearchPlan/doc/researchplan.pdf). However, as all good
projects evolve, it became apparent that I should be aligning my
project with a well-supported Australian sea ice modelling effort, not
only for my own support, but also to aim for a more impactful goal of
incorporating fast ice into a nationally recognised/supported
model.

After a brief interlude in the first quarter of 2022 I'm now pursuing
fast ice modelling with an eye towards incorporating it into [COSIMA](http://cosima.org.au).


<a id="org5508e47"></a>

# Administrative     :admin:


<a id="org5e46552"></a>

## Student Number     :admin:numbers:

175611


<a id="org0c5ee45"></a>

## Student Universal Identifier (USI)     :admin:numbers:

DJVW9ZANU3


<a id="org92c4c63"></a>

## Supervisors/Advisors/GRC     :contacts:


<a id="orgf40f2cf"></a>

### Primary

[Alex Fraser](mailto:alexandar.fraser@utas.edu.au)


<a id="org855b9cc"></a>

### Secondary

[Will Hobbs](mailto:will.hobbs@utas.edu.au)
[Paul Spence](mailto:paul.spence@utas.edu.au)


<a id="orgf46f9c8"></a>

### Graduate Research Coordinator

[Max Nikurashin](mailto:maximum.nikurashin@utas.edu.au)


<a id="org7ee3e46"></a>

## [Student Systems and Support Servies](https://www.utas.edu.au/research-admin/graduate-research/current-candidates/support-services)     :bookmark:


<a id="orgeca0dcb"></a>

### [iGrad](https://researchstudent.utas.edu.au/login.aspx?ReturnUrl=%2f)     :bookmark:admin:utas:

iGRad is the electronic Candidature Management system.
This system gives you, your supervisors and Graduate Research Coordinator (GRC) an overview of your
candidature, monitors your progress and is where you will submit your Research Plans, Annual Review
Progress Reports and Thesis for Examination.


<a id="org27a9fe7"></a>

### [eStudent Login](https://estudent.utas.edu.au/T1SMProduction/WebApps/eStudent/login.aspx?ReturnUrl=%2fT1SMProduction%2fWebApps%2feStudent%2fdefault.aspx)     :bookmark:admin:utas:

Access the eStudent self-service portal to manage your personal details, enrol in your coursework
units and monitor your current enrolment and academic progress. Fees information is also accessed
via eStudent. 
For Domestic candidates, the eStudent portal is where you will complete your electronic Commonwealth
Assistance Form (eCAF) and pay your Student Services and Amenities Fees (SSAF). 


<a id="orgfab701e"></a>

### [My Learning Online (MyLO)](https://www.utas.edu.au/mylo)     :bookmark:admin:utas:

MyLO is the online learning environment at UTAS. MyLO stands for My Learning Online.
Units that you can access via MyLO include any Induction modules you are required to complete and
the compulsory units of the Graduate Certificate in Research (X5A): 

-   XGR501: Introduction to Higher Degree by Research
-   XGR502: Communicating Research


<a id="org7920bb2"></a>

### [Student Services and Amenities Fee (SSAF)](https://www.utas.edu.au/students/admin/ssaf)     :bookmark:utas:


<a id="org0522669"></a>

## Graduate Research Office     :contact:admin:

[Graduate Research Office for College of Science and Engineering](mailto:GraduateResearch.CoSE@utas.edu.au)
telephone :: +61(0)362268559
Sandy Bay Campus
Centenary Building
Level 3, Room 303
SANDY BAY TAS 7005
[Sandy Bay Campus Map](file:///Users/dpath2o/Documents/orgs/figs/Sandy-Bay-Campus-Guide.pdf)


<a id="orga538464"></a>

## Institute of Marine and Antarctic Studies (IMAS)


<a id="org6bc9139"></a>

### Key Personnel

1.  Director of IMAS

    -   Terry Bailey

2.  Head of Oceans and Cryosphere

    -   Neil Holbrook


<a id="orgf06f973"></a>

### Commencement

1.  IMAS Induction Guide [Online PDF](https://drive.google.com/file/d/1oDS4qBfGMTNy7of3XoXOIR770i-lU0jt/view?usp=sharing)     :bookmark:

2.  IMAS New Student Checklist [Online PDF](https://drive.google.com/file/d/1WUM0ZtpzSG2RPsk_n7yCUUA2wrmxeFAY/view?usp=sharing)     :bookmark:


<a id="orgcaa1548"></a>

## Funding     :admin:


<a id="orgd4ec806"></a>

### ADF     :adf:admin:

1.  CSS (Civil Schooling Scheme)

    1.  Apply to CSS
    
    2.  DONE Send CSS Draft Application to [Karen Thomson](mailto:karen.thomson@defence.gov.au)
    
        -   CLOSING NOTE <span class="timestamp-wrapper"><span class="timestamp">[2021-05-12 Wed 09:03] </span></span>   
            email sent <span class="timestamp-wrapper"><span class="timestamp">[2021-05-11 Tue]</span></span>

2.  CDF Fellowship


<a id="org85499ea"></a>

### Scholarships

1.  RTP

    see here for details <https://drive.google.com/file/d/1hFuX_UWDZJjOI3CbTUE5Vub5vQnrqbr7/view?usp=sharing>

2.  AAPP Top-Up

    -   [link to document on AAPP Scholarship](https://universitytasmania.sharepoint.com/:w:/r/sites/AustralianAntarcticProgramPartnership/_layouts/15/Doc.aspx?sourcedoc=%7BD4678FC5-A847-4219-AC35-A9D8E68D830A%7D&file=AAPP%20top-up%20scholarship_FINAL_20200501.docx&action=default&mobileredirect=true)
    
    1.  Decision by AAPP panel on <span class="timestamp-wrapper"><span class="timestamp">[2021-06-24 Thu]</span></span>
    
        -   application has been withdrawn due to my full time employment
        -   should my employment status change I am encouraged to re-submit my application
        -   see email from Wen
    
    2.  DONE AAPP Scholarship Online Application
    
        -   CLOSING NOTE <span class="timestamp-wrapper"><span class="timestamp">[2021-05-10 Mon 13:32] </span></span>   
            applied on-line after sending Alex the drafting wording and receiving his thumbs-up
        
        [link to application](https://forms.office.com/Pages/ResponsePage.aspx?id=VV3rFZEZvEaNp6slI03uCDs11aTj99RDrN_ronIHAR1UQlJBTFhPNFBBTUtQSVRGVzA3UzI0RFM2My4u)
    
    3.  Form Contents
    
        IOT draft the content of the online form I've pulled out the fields and
        translated them to org headers
    
    4.  Candidate Name
    
        Daniel Patrick Atwater
    
    5.  Project Title
    
        East Antarctic Fast Ice Model
    
    6.  AAPP Project
    
        -   [X] Sea Ice
    
    7.  Supervisors
    
        -   Alex Fraser
        -   Paul Sandery
        -   Phil Reid
        -   Will Hobbs
        -   Wilma Huneke
    
    8.  Current Scholarship
    
        -   RTP
    
    9.  Date Commenced
    
        <span class="timestamp-wrapper"><span class="timestamp">&lt;2021-05-03 Mon&gt;</span></span>
    
    10. Anticipated Completion Date
    
        <span class="timestamp-wrapper"><span class="timestamp">&lt;2025-11-03 Mon&gt;</span></span>
    
    11. State how your project is related to the AAPP objectives (max 150 words)
    
        One of three key questions of Theme 3 - Project 6 is addressed by this
        research. Specifically the aim of this project is to model fast ice in the East
        Antarctic which will elucidate the primary mechanism for the observed variation
        and changes of the continental shelf sea-ice mass while laying the ground work
        for building a long-range forecasting model. The focus of this project will be
        to re-design an existing ice-ocean model to include realistic Antarctic fast
        ice. Then using this new East Antarctic Fast Ice Model, I will perform a series
        of synthetic experiments to determine the drivers of this fast ice and the role
        of dense water formation along the continental shelf. This should elucidate the
        recent shift in sea-ice mass extent and allow for future models to better
        incorporate sea-ice into Earth system models with a higher degree of confidence.
    
    12. Describe your current progress, including demonstration of any outputs including publications, presentations, etc. (max 250 words)
    
        My current progress is limited to successful enrolment as a remote part-time PhD
        candidate with UTas - IMAS - AAPP. I am presently working full-time as a
        Meteorological & Oceanographic Officer with the Royal Australian Navy and I am
        applying through my employer, in June, for formal recognition of a 20% release rate (i.e. one-day-per-week) to pursue my PhD. At present I
        have an informal agreement with my unit of one-day-per-week (and at other times
        as work requirements allow); hence they are supportive of this academic
        pursuit. However, a formal agreement would carry more weight should I need to be
        moved elsewhere in the Navy (i.e. under a different command). It has been
        indicated to me that in the merit process of assessing the formal agreement any
        additional awards, grants and scholarships that I have been successful in
        receiving will help to increase my merit application score with the Navy. In
        this same vein I will be applying to the Chief of Defence Force Fellowship. This
        is an annual Fellowship that releases ADF members from full-time service to
        pursue post-graduate degrees, while still remunerating the member at their
        present rate. That application also gives significant weight to additional
        grants and scholarships that an applicant presents. Given the strategic
        importance of Antartica to our nation and the relevance of understanding AABW
        formation as a key driver of the Earth climate system there is a direct
        strategic security linkage to this project.
    
    13. I certify that I am not receiving any other form of top-up scholarship
    
        -   [X] affirmative

3.  Fulbright

    used as a travel scholarship to travel and live at an international university for a period of time


<a id="org93a3a39"></a>

### Fellowships

1.  SCAR


<a id="orgbfc9813"></a>

## Travel     :admin:


<a id="orgcb28e03"></a>

### DONE Call Wen about July Travel Bookings

-   CLOSING NOTE <span class="timestamp-wrapper"><span class="timestamp">[2021-05-21 Fri 14:03] </span></span>   
    decided to defer travel

<span class="timestamp-wrapper"><span class="timestamp">&lt;2021-05-17 Mon 10:00&gt;</span></span>


<a id="org6502e0d"></a>

### Reoccurring

1.  BLUF

    Total nominal cost $2500

2.  Justification

    There is an on-going (twice yearly) need for me to travel from my place of
    residence in Bomaderry, NSW to UTas-IMAS offices in Hobart, TAS. This will be to
    meet with supervisors and attend courses as required. As such it is envisioned
    that travel periods will be no longer than one to two weeks. With this in
    mind it is my intention here to provide the generalised costings for such travel
    using the least expensive method.
    
    1.  Considerations
    
        -   face-to-face meeting with supervisor(s) which promotes/allows for a more lasting
            human bond to be established/formed/fostered
        -   physical presence allows for spontaneous networking with other post-graduate
            students and researchers not otherwise achieved
    
    2.  Example of Tasks
    
        -   intensive residential short-course(s)
        -   attendance at meetings/conferences/symposiums
        -   prepare/practice/present a talk/brief
        -   confirmation of candidature

3.  Ground Transport

    1.  Home to SYD (RTN)
    
        $50
    
    2.  HOB to IMAS (RTN)
    
        $40

4.  Airfares

    1.  SYD to HOB (RTN) discount fare
    
        $500

5.  Accommodation

    1.  [Salamanca Terraces](https://www.salamancaterraces.com.au)
    
        $1700 weekly rate
    
    2.  rationale
    
        -   preferred
        -   my own meal prep/cook
    
    3.  weekly food cost grocer
    
        $200
    
    4.  Travelodge Hobart
    
        $1300 weekly rate
    
    5.  rationale
    
        -   save $400 on accommodation, but weekly foot cost of eating out is twice this
    
    6.  weekly food cost eating out
    
        $791 (as per ATO daily allowance rate of $113)


<a id="org5ea3ad7"></a>

### July 2021

1.  Justification

    There is a need to meet face-to-face with my supervisors within the first
    90-days (FTE) after commencing candidancy. This week (see below) has been identified as a week
    in which all supervisors have availablity. The plan will be to drive to Tasmania
    as it will be less expensive than to fly. This is with the view that I will be
    travelling with my family, wife and two children. The reason for travelling with
    family is that they would like to see potentially where we would be living when
    I switch to a full-time PhD student. There is a psychological rationale behind
    incorporating my family and especially my kids in the trip is that it gives them
    a sense of ownership or rather that the entire family is invested in this
    academic pursuit that I am embarking upon. This will pay dividends when I am in
    the thick of research and looking for their understanding as to why I am doing
    this project.
    
    1.  Dates
    
        <span class="timestamp-wrapper"><span class="timestamp">[2021-07-03 Sat]</span></span>-<span class="timestamp-wrapper"><span class="timestamp">[2021-07-11 Sun]</span></span>
    
    2.  Kennels
    
        [Valley Kennels](https://www.valleykennels.com.au/new_index.htm)
        
        -   cost is to come from personal budget
        -   approximate cost $450
        
        1.  CANCELLED contact Valley Kennels to enquire on availability     :phone:CANCELLED:
        
            -   State "CANCELLED"  from "TODO"       <span class="timestamp-wrapper"><span class="timestamp">[2021-05-21 Fri 14:04]</span></span>
    
    3.  Driving
    
        -   Approximate driving time Home to Melbourne 8.5 hr
        
        1.  Spirit of Tasmania
        
            -   Departs at 1930
            -   Approximate cost $1500 with cabin each way
            -   Approximate cost $1100 without cabin
    
    4.  Flying
    
        1.  Qantas
        
            -   Approximate cost $2000; Red E-Deals
    
    5.  Accommodation
    
        1.  Hotels
        
            $1500 based on Salamanca Terraces rate for six nights
        
        2.  Air BnB / Short-term Rental
        
            $1200 - $1800 based on search conducted
        
        3.  House-sitting
        
            1.  DONE Post to FB IMAS Postgrads
            
                -   CLOSING NOTE <span class="timestamp-wrapper"><span class="timestamp">[2021-05-02 Sun 20:52]</span></span>


<a id="org378dceb"></a>

# Research     :res:


<a id="org3a82326"></a>

## UTas Library Services     :bookmarks:

[UTas Research](https://www.utas.edu.au/library/research)


<a id="orgca7aedf"></a>

## Modelling     :modelling:


<a id="orgfd8b8d8"></a>

### CICE     :coupled:seaice:modelling:


<a id="orgfeaa2ec"></a>

### WAVEWATCH III     :bookmark:modelling:ocean:

[NOAA NCEP Homepage](https://polar.ncep.noaa.gov/waves/wavewatch/license.shtml)


<a id="org264a4d4"></a>

### SWAN (Simulating WAves Nearshore)     :bookmark:modelling:ocean:

[Maintainers Homepage](http://swanmodel.sourceforge.net)


<a id="orgb048dfb"></a>

### Weather Research & Forecasting (WRF) Model     :bookmark:modelling:atmo:

[Forum](https://forum.wrfforum.com)


<a id="org925925d"></a>

### Model Coupling Toolkit (MCT)     :bookmark:modelling:atmo:

[US DOE Hosted wesbite](https://www.mcs.anl.gov/research/projects/mct/)


<a id="orgfbb31d0"></a>

### COAWST     :modelling:ocean:coupled:

[USGS Brief Description](https://www.usgs.gov/software/coupled-ocean-atmosphere-wave-sediment-transport-coawst-modeling-system) of the model


<a id="org0214408"></a>

### ROMS     :ocean:modelling:

Regional Oceanographic Model System (ROMS)

1.  Compiling a test ROMS on CentOS 7.4 &#x2013; *sealion*

2.  Created SSH Key on NECTAR and downloaded to local machine

        mv ~/Downloads/NECTARprivate_key.pem ~/.ssh/sealion.pem
        chmod 0600 ~/.ssh/sealion.pem
    
    1.  Created NECTAR CentOS Instance
    
        -   **NAME:** sealion
        -   **ID:** 6caeb392-4773-4b4b-86a2-ff96cff1ef49
        -   **Description:** hear the lion roar
        -   **Project ID:** [d404319b1cca4f10ab265e607a129616]
        -   **Status:** Active
        -   **Locked:** False
        -   **Availability Zone:** QRIScloud
        -   **Created:** 15 Sep 2021, 7:11 p.m.
        -   **Age:** 7 hours, 3 minutes
        
        1.  Specs
        
            -   **Flavor Name:** r3.xxlarge
            -   **RAM:** 128GB
            -   **VCPUs:** 32 VCPU
            -   **Disk:** 30GB
            
            1.  IP Addresses
            
                -   **qld-data:** 10.255.132.204
                -   **qld:** 203.101.231.127
        
        2.  Security Groups
        
            1.  http
            
                -   **ALLOW IPv6 to:** ::/0
                -   **ALLOW IPv4 443/tcp from:** 0.0.0.0/0
                -   **ALLOW IPv4 to:** 0.0.0.0/0
                -   **ALLOW IPv4 80/tcp from:** 0.0.0.0/0
            
            2.  icmp
            
                -   **ALLOW IPv4 to:** 0.0.0.0/0
                -   **ALLOW IPv4 icmp from:** 0.0.0.0/0
                -   **ALLOW IPv6 to:** ::/0
            
            3.  ssh
            
                -   **ALLOW IPv4 22/tcp from:** 0.0.0.0/0
                -   **ALLOW IPv6 to:** ::/0
                -   **ALLOW IPv4 to:** 0.0.0.0/0
            
            4.  default
            
                -   **ALLOW IPv4 from:** default
                -   **ALLOW IPv6 to:** ::/0
                -   **ALLOW IPv6 from:** default
                -   **ALLOW IPv4 to:** 0.0.0.0/0
            
            5.  test
            
                -   **ALLOW IPv6 to:** ::/0
                -   **ALLOW IPv4 to:** 0.0.0.0/0
                -   **ALLOW IPv4 22/tcp from:** 0.0.0.0/0
        
        3.  Metadata
        
            -   **Key Name:** Sealion
            -   **Image Name:** NeCTAR CentOS 7 x86<sub>64</sub>
            -   **Image ID:** 0efe8a7e-5a3b-4428-853e-08ab780af042
            
            1.  Volumes Attached
            
                -   **Volume:** No volumes attached.
    
    2.  Created useful aliases and functions on local machines shell
    
            nano .zshrc_me
        
            SEALION_IP=[NECTAR ASSIGNED IP]
            alias sealion="ssh -i ~/.ssh/sealion.pem ec2-user@${SEALION_IP}"
            sealion_scp_from () {
            		 scp -i ~/.ssh/sealion.pem ec2-user@${SEALION_IP}:$1 $2
            }
            sealion_scp_to () {
            		 scp -i ~/.ssh/sealion.pem $1 ec2-user@${SEALION_IP}:$2
            }
    
    3.  SSH to *sealion* and changed root password
    
            sudo passwd [NECTAR DEFAULT CENTOS USERNAME]
    
    4.  Download ROMS via git
    
        1.  Use `git-credential-store`
        
                git config --global credential.helper 'store --file ~/.my-credentials'
        
        2.  Store ROMS passcode in cryptographic file
        
                cd ~
                gpg --gen-key
            
            Creating an *RSA* of `4096` with indefinite key expiry and then my UTas email
            address and name
        
        3.  Created key file using *nano* editor
        
                nano .netrc
            
            and file contents
            
                machine www.myroms.org
                login [ROMS USNAME]
                password [ROMS PASSWORD]
                protocol https
        
        4.  Download the `git-credential-stor`
        
                mkdir ~/bin
                curl -o ~/bin/git-credential-netrc https://raw.githubusercontent.com/git/git/master/contrib/credential/netrc/git-credential-netrc
                gpg -e -r [My UTas EMAIL] .netrc
                git config --global credential.helper "netrc -f ~/.netrc.gpg -v"
        
        5.  Download ROMS
        
                mkdir ~/ROMS
                git clone https://[ROMS USERNAME]@www.myroms.org/git/src ~/ROMS
                cd ~/ROMS
                git config filter.id.smudge ".git_filters/id.smudge %f"
                git config filter.id.clean ".git_filters/id.clean %f"
                rm .git/index
                git checkout HEAD -- "$(git rev-parse --show-toplevel)"
        
        6.  Download ROMS Documentation
        
                git clone https://github.com/kshedstrom/roms_manual
    
    5.  Install critical software
    
            sudo yum group install "Development Tools"
            sudo yum install texlive-*
            sudo yum install openmpi
            sudo yum install netcdf-devel
        
        The first command critically installs `gcc`, `gfortran`, `cpp`, `make` and a number of other
        libraries and software tools that are useful. The second installs latex. The
        third install [OpenMPI](https://www.open-mpi.org) , which has not been fully tested and may require to be
        installed from source.
        The last installs `nc-config` and associated netcdf binaries required, however,
        it does not compile due to the following dependency error.
        
              Error: Package: netcdf-4.3.3.1-5.el7.x86_64 (epel)
            	  Requires: hdf5(x86-64) = 1.8.12
            	  Available: hdf5-1.8.12-12.el7.x86_64 (epel)
            	      hdf5(x86-64) = 1.8.12-12.el7
            	  Installing: hdf5-1.8.13-7.el7.x86_64 (centos-openstack)
            	      hdf5(x86-64) = 1.8.13-7.el7
            You could try using --skip-broken to work around the problem
            You could try running: rpm -Va --nofiles --nodigest
    
    6.  Download and build ROMS documentation
    
            cd ~/ROMS
            git clone https://github.com/kshedstrom/roms_manual
            cd roms_manual
            pdflatex roms_manual.tex
            pdflatex roms_manual.tex
        
        Stored locally as
        
        1.  ROMS Manual
        
            [ROMS Manual](file:///Volumes/SEASONG/PHD/references/modelling/roms_manual.pdf)
    
    7.  ROMS `nc-config` Dependency
    
        As per page.6 of the [124](#orga469361) having this tool is nearly essential, hence,
        I'll now attempt to build NetCDF from source
    
    8.  Building NetCDF from source
    
        Following [NETCDF](https://www.unidata.ucar.edu/software/netcdf/documentation/NUG/getting_and_building_netcdf.html) build instructions
        
            cd ~
            mkdir source_builds
            cd source_builds
            wget https://downloads.unidata.ucar.edu/netcdf-c/4.8.1/src/netcdf-c-4.8.1.tar.gz
            wget https://www.unidata.ucar.edu/downloads/netcdf/ftp/netcdf-fortran-4.5.3.tar.gz
            wget http://www.zlib.net/zlib-1.2.11.tar.gz
        
        Downloaded `hdf5` source code locally and securely copied to *sealion*
        
        1.  building `zlib`
        
                tar xvf zlib.tgz
                cd zlib
                  ZDIR=/usr/local
                 ./configure --prefix=${ZDIR}
                 make check
                sudo make install
                cd ..
        
        2.  building `hdf5`
        
                tar xvf hd5.tgz
                cd hdf5
                H5DIR=/usr/local
                ./configure --with-zlib=${ZDIR} --prefix=${H5DIR} --enable-hl
                make test
                sudo make install
                cd ..
        
        3.  building of `netcdf-c`
        
                tar xvf netcdf-c.tgz
                cd netcdf-c
                NCDIR=/usr/local
                CPPFLAGS='-I${H5DIR}/include -I${ZDIR}/include' LDFLAGS='-L${H5DIR}/lib -L${ZDIR}/lib' ./configure --prefix=${NCDIR}
                make test
                cd ~
            
            This fails with logged failure in [netcdf-c build log failure](file:///Volumes/SEASONG/PHD/modelling/log/test-suite.log)
        
        4.  building `cmake`
        
                wget https://github.com/Kitware/CMake/releases/download/v3.21.2/cmake-3.21.2.tar.gz
                tar xvf cmake-3.21.2
                cd cmake-3.21.2
                ./bootstrap --prefix=/usr/local
                make -j$(nproc)
                make install

3.  Compiling a test ROMS on Ubuntu 20.04

    following [ROMS customise build script](https://www.myroms.org/wiki/ROMS_UNSW2008#Customize_the_Build_Script)
    
    1.  first need to ensure `EMACS` can `TRAMP` into
    2.  copied
        ssh:ubuntu@131.217.175.244:/home/ubuntu/projects/upwelling/build<sub>roms.sh</sub>
    3.  running *upwelling* idealised test with `./romsG < roms_upwelling.in > my_upwelling.log`
    4.  Unable to *openMPI* version of ROMS compiled on *seaclub* , opened an IT
        ticket with TPAC helpdesk

4.  ROMS Code     :bookmark:code:

    [GitHub Link and Information](https://www.myroms.org/wiki/Git)

5.  [ROMS Forum](https://www.myroms.org/forum/index.php)     :bookmark:forum:

6.  [ROMS Working Group](https://www.myroms.org)     :acct:admin:


<a id="orgb86f0de"></a>

### [METROMS](https://github.com/metno/metroms)     :coupled:atmo:ocean:modelling:

Coupled ROMS-CICE through MCT ; For citing of the code, see:
<https://doi.org/10.5281/zenodo.597679>

1.  Setup Curvilinear Grid

    1.  Ole Richter's Circumpolar Antarctic Grid
    
        <https://github.com/kuechenrole/antarctic_melting/blob/master/notebooks/preprocessing/make_grid.ipynb>

2.  Curvilinear Definition     :def:

    A curvilinear grid or structured grid is a grid with the same combinatorial
    structure as a regular grid, in which the cells are quadrilaterals or (general)
    cuboids, rather than rectangles or rectangular cuboids.

3.  Bathymetry     :grid:bathy:

    1.  GEBCO2020
    
        <https://www.gebco.net>
    
    2.  Bedmachine
    
        <https://sites.uci.edu/morlighem/dataproducts/bedmachine-antarctica/>
    
    3.  Extrapolate and Merge new GA grid
    
        [this](https://ecat.ga.gov.au/geonetwork/srv/eng/catalog.search#/metadata/135334) grid, from [Jodi Smith (Geosciences Australia)](mailto:Jodie.Smith@ga.gov.au) westward at ~2km using [IBCSO](https://www.scar.org/science/ibcso/home/)


<a id="org6f59388"></a>

## Data     :data:


<a id="org4d09641"></a>

### Grids

1.  Ole Richter's Work     :bathy:grid:code:

    [GitHub Link](https://github.com/kuechenrole/antarctic_melting/tree/master/notebooks/preprocessing)
    
    1.  DONE Download and put onto my google drive
    
        -   CLOSING NOTE <span class="timestamp-wrapper"><span class="timestamp">[2021-06-18 Fri 13:59]</span></span>
        
        Wilma downloaded data from gadi for me and put it on my google drive


<a id="org77100ea"></a>

### Atmospheric Reanalysis     :data:model:reanalysis:

1.  [NCEP](https://www.ncep.noaa.gov)

    National Center for Environmental Prediction

2.  [CFS](https://www.ncdc.noaa.gov/data-access/model-data/model-datasets/climate-forecast-system-version2-cfsv2)

    Climate Forecast System Reanalysis

3.  [MERRA2](https://climatedataguide.ucar.edu/climate-data/nasas-merra2-reanalysis)

    Modern-Era Retrospective analysis for Research and Applications version 2
    
    1.  Key Attributes
    
        -   0.5∘ latitude
        -   0.625∘ longitude
        -   72 levels
        -   hourly resolution
        -   incorporates observations from more recent satellite observations – more
            recent than what?
        -   improved estimates for surface mass balance and *surface temperature over ice
            sheets*
    
    2.  Key Limitations
    
        -   discontinuities occur in sea ice and SST boundary that affect certain time
            series
        -   magnitude of precipitation over polar regions is too high (not correct) and
            excessive over high topography in tropical latitudes


<a id="orge33e07e"></a>

### Fast Ice Distribution     :data:derived:remote_sensing:

Based on [Fraser2019](./references/journal_articles/FRASER_2019_Landfast ice controls on sea-ice production in the Cape Darnley PolynyaLandfast ice controls on sea-ice production in the Cape Darnley Polynya.pdf) a high resolution (1km) time series of 15-day
composite maps of fast-ice distribution for the period of
<span class="timestamp-wrapper"><span class="timestamp">[2000-03-01 Wed]&#x2013;[2014-03-01 Sat] </span></span> via [159](#org20d24a9) and [160](#orgf9d0f4e) derived satellite data.


<a id="org91618e1"></a>

### Bathymetry and Topography     :bathy:topo:data:

1.  Bedmachine     :bathy:data:

    [website link](https://sites.uci.edu/morlighem/dataproducts/bedmachine-antarctica/)

2.  Jodie Smith Data     :bathy:data:

3.  [GEBCO](https://www.gebco.net)     :bathy:data:

4.  [IBCSO](https://www.scar.org/science/ibcso/ibcso/)     :bathy:data:

    International Bathymetric Chart of the Southern Ocean


<a id="orgee0d747"></a>

### Sea Ice Remote Sensing     :data:obs:remote_sensing:

1.  Satellite     :data:obs:remote_sensing:

    1.  [Seaice website](http://south.seaice.dk/2016//) with daily composite images
    
        developed routine to download images and make monthly composite images
    
    2.  NASA
    
        1.  Terra
        
        2.  [MODIS](https://terra.nasa.gov/about/terra-instruments/modis)
        
            Moderate Resolution Imaging Spectroradiometer
        
        3.  Aqua
        
        4.  [AMSR-E](https://aqua.nasa.gov/amsr-e)
        
            Advanced Microwave Scanning Radiometer &#x2013; Earth Observing System (EOS)
            daily estimates of thin sea ice thickness 6.25km resolution
    
    3.  ESA
    
        1.  Sentinel-1A-B
        
        2.  List of Files from UTas
        
            <file:///Volumes/SEASONG/PHD/data/satellite/sentinel/list_of_files_from_UTas_harddrive.txt>

2.  University of Bremen     :data:bookmark:obs:satellite:

    [Sea Ice Concentration](https://seaice.uni-bremen.de/sea-ice-concentration/amsre-amsr2/)


<a id="orgf523adf"></a>

### Australian Antarctic Data Centre (AADC)     :data:obs:bookmark:

[website](https://data.aad.gov.au/aadc/about/data_policy.cfm#SummaryAADC)


<a id="orgf7acb86"></a>

### Southern Ocean Observing System (SOOS)     :data:system:network:

[website homepage](https://www.soos.aq)

1.  [SOOSMap](https://www.soosmap.aq/#)     :data:map:bookmark:obs:insitu:remote_sensing:

2.  Marine Mammals Exploring the Ocean Pole to Pole (MEOP)     :data:insitu:bookmark:


<a id="org1bfe56c"></a>

## Research Plan 2.0     :plan:

Being a dynamic document this simply a new version of the previous
plan. As it should it will be kept separate from this document and can
be found [here](./researchplan/researchplan.md) (as an Emacs-Org)


<a id="org90c0ea9"></a>

## Candidature     :report:


<a id="org47cf310"></a>

### Meetings

You are encouraged to meet with your supervisory team on a regular basis (e.g. fortnightly) to discuss project progress, troubleshoot issues and develop action plans for future research. These regular meetings support fruitful communication between you and your team, and assists all parties to manage their expectations.
Meeting Agendas: You are responsible for preparing the agenda for your meetings and documenting the discussion and outcomes. This record provides clarity for all parties. The agenda can include:
Meeting date/attendees

-   Progress on matters arising from the last meeting
-   Other project progress since the last meeting
-   Matters for discussion/troubleshooting
-   Progress towards your next candidature milestone(s)
-   Actions/outcomes arising from current meeting
-   Any other business


<a id="org7110993"></a>

### Ethics Approval

The University of Tasmania (UTAS) is dedicated to creating and maintaining an environment that promotes the responsible and ethical conduct of research in accordance with the Australian Code for the Responsible Conduct of Research.
It is essential that you discuss with your supervisors at the very outset whether ethics approval is needed and how to obtain it. Many research projects, including Doctor of Philosophy and Master of Research projects, require Human Ethics or Animal Ethics approval to proceed.
The Research Integrity and Ethics Unit is there to support researchers at UTAS. Please contact them with any questions relating to an ethics application, a clinical trial or a research integrity issue.


<a id="org702f6c2"></a>

### Confirmation of Candidature

The purpose of Confirmation of Candidature is to assess:

-   Your academic preparedness and whether you have developed a clearly defined,
    coherent and feasible research project and whether you have documented this
    adequately in your research plan
-   Whether you have met coursework requirements as specified in your letter of offer
-   Whether other specific requirements (e.g. obtaining ethics approval) have been met
-   The suitability of the supervisory team to support you to completion
-   Whether your oral and written skills are sufficient for undertaking a Higher Degree by Research
-   The likelihood of you completing your Higher Degree by Research within the maximum degree period
-   Discuss the requirements of your Confirmation of Candidature with your
    supervisors and Graduate Research Coordinator (GRC) as early as possible

In order to have your candidature confirmed, you must fulfil the following
requirements:

-   Research Plan
-   Ethics Requirements
-   Data Management Plan
-   Written Work
-   Oral Presentation
-   Peer Review
-   Supervisor-Candidate meetings
-   Coursework
-   Any additional criteria required by your school or specified in your letter of offer

Detailed information can be found in the Research Training Ordinance and the
Interim HDR Candidature Management procedure and Interim HDR Reviews of Progress
procedure.


<a id="org068ca58"></a>

### Annual Review of Candidature

Following successful Confirmation of Candidature, your progress will be formally
reviewed every 12 calendar months through candidature until submission.
The purpose of the annual review is to make an assessment of:

-   Your academic performance consistent with your research plan
-   The adequacy of research infrastructure and resources (including the
    supervisory team relationship) needed to complete your research project within
    the maximum degree period

You will be required to complete the Annual Review tab in iGRad. This allows you
to fill out information and upload documents regarding your Annual Review,
before a meeting is held with your Graduate Research Coordinator (GRC).
Detailed information can be found in the Research Training Ordinance and the
Interim HDR Candidature Management procedure and Interim HDR Reviews of Progress
procedure.


<a id="orgfcb662a"></a>

### Thesis Submission and Examination


<a id="org82c276f"></a>

### Step 1: Abstract

At least eight weeks (8) prior to submitting your thesis/exegesis for
examination, you will need to upload your abstract by completing the Examination
Intention to Submit tab in iGRad.
On receipt of your abstract, a request will be sent to your supervisory team and
Head of School, from the Graduate Research Office, asking them to nominate
examiners for your thesis/exegesis.
The nomination of examiners process is confidential. You are permitted to
provide the names of examiners that you do not want to examine your work (and
accompanying reasons), but that is the extent to which you are involved.
A Chair of Examiners will also be appointed by the Head of School to act as an
independent Chair throughout the examination process. Where the Head of School
is also a member of your supervisory team, the relevant College Dean or
Institute Director will appoint the Chair of Examiners.


<a id="orgc1fdd11"></a>

### Step 2: Thesis/Exegesis Submission

Before the maximum expiry date of your candidature, you will need to submit your
thesis/exegesis (and supplementary material if relevant) for examination by
completing the Examination > Thesis Submission tab in iGRad.
If your thesis is less than 60MB in size, and you are only submitting a thesis,
please upload your thesis to the Thesis Submission tab in iGRad.
If your thesis is greater than 60MB in size, or you have supplementary material,
please generate a link to your thesis (and supplementary material) via CloudStor
and then embed the URL link generated via CloudStor onto your title page. Once
completed, please upload the title page (only) to the Thesis Submission tab in
iGRad. To access CloudStor, you can use your UTAS login.
Supplementary material may include, but not be limited to, appendices, research
publications, books, a portfolio of audio/video musical recordings,
documentaries or art works e.g., photos of exhibited items produced during your
work. Please do not duplicate copies of the supplementary material that is
already incorporated into your thesis material.
The thesis/exegesis must include all relevant and signed statements and
declarations before uploading. For further information on these, and other
general requirements, please access the General Requirements of a Higher Degree
by Research Thesis document. Specific details about formatting, length and
referencing will also be dependent upon the discipline in which you have
conducted your research. Please consult with your supervisory team about these
details.
Printed copies of your thesis/exegesis are no longer required, unless
specifically requested by an examiner. In this case, the Graduate Research
Office will request these from you via the School.
Upon receipt of your thesis/exegesis notice will be sent to your Head of School
requesting their approval of your submission.
You will be able to track the examination process via the Examination tab in
iGRad. This will inform you of when examiners have been nominated, when your
thesis/exegesis has been sent and the due dates for examiner reports.


<a id="orgb4dd6b9"></a>

### Step 3: Examiner Reports

Examiners are requested to return their reports to the Graduate Research Office within six weeks of receiving the thesis/exegesis, however this often takes longer due to workload and personal circumstances. The Graduate Research Office has procedures in place to follow-up on overdue examiner reports.

Once all of the examiner reports have been received, they are sent to the Chair of Examiners. The Chair of Examiners are responsible for providing a recommendation to the Graduate Research Office on the reports, who will then submit their comments and recommendation on the examination outcome to the Dean of Graduate Research.

The Dean of Graduate Research shall consider the recommendations of the examiners and the Chair of Examiners before determining how to proceed to the next stage.

Once determined, we will inform you of the outcome of your examination and send you the examiner reports.

When you have completed any required revisions, please submit your corrected thesis to the Chair of Examiners. They will review your final thesis and, if approved, recommend to the Graduate Research Office that your degree be awarded.

After the Graduate Research Office receive this approval, we can then advise you of the identity of your examiners and invite you to upload your final thesis and graduation requirements by completing the Examination > Graduation Requirements tab in iGRad.


<a id="org93de1c2"></a>

### Step 4: Final Thesis/Exegesis Submission

After the Graduate Research Office have invited you to upload your final thesis and graduation requirements, you will need to submit your final thesis/exegesis (including all supplementary material if relevant) by completing the Examination > Graduation Requirements tab in iGRad.

If your thesis is less than 60MB in size, and you are only submitting you’re a thesis, please upload your thesis to the Graduation Requirements tab in iGRad.

If your thesis is greater than 60MB in size, or you have supplementary material, please generate a link to your thesis (and supplementary material) via CloudStor and then embed the URL link generated via CloudStor onto your title page. Once completed, please upload the title page (only) to the Graduation Requirements tab in iGRad. To access CloudStor, you can use your UTAS login.

The thesis/exegesis must include all relevant and signed statements and declarations before uploading. Please be advised that printed copies are no longer required.

To fulfil our graduation requirements, you will need to provide:

Your Final Thesis
All supplementary material (which may include, but not be limited to, appendices, research publications, books, a portfolio of audio/video musical recordings, documentaries or art works e.g., photos of exhibited items produced during your work).
A Thesis Access Form
A thesis abstract for the purpose of AHEGS. This abstract must be strictly 2000 characters (including spaces) or less: This is required for the Australian Higher Education Graduation Statement (AHEGS), a Commonwealth requirement.
For PhD or Professional Doctorate candidates only: A 40-word summary of your thesis to be read at the ceremony to a general audience. Please refer to the 40 Word Summary Guidelines.
Once you have fulfilled the above requirements, the Graduate Research Office will request Academic Senate approval to award your degree. We will advise you when this approval has been received.


<a id="org0b360c6"></a>

### Step 5: Graduation


<a id="org92f0ec3"></a>

# Courses and Seminars     :course:


<a id="org8b7f166"></a>

## AAD Seminar Series     :seminar:virtual:


<a id="org5166a3d"></a>

### Andrew Kelly &#x2013; CEO Antarctic Science Foundation

:SCHEDULED: <span class="timestamp-wrapper"><span class="timestamp">&lt;2021-06-10 Thu 11:00&gt;&#x2013;&lt;2021-06-10 Thu 12:00&gt;</span></span>
[GovTeams Link](https://protect-au.mimecast.com/s/9u8fCZYM5DF5VxwZxSjDcge?domain=teams.microsoft.com)


<a id="org1b81328"></a>

## MyLO     :OLcourse:


<a id="orgb075b33"></a>

### DONE Getting Started with MyLO

-   CLOSING NOTE <span class="timestamp-wrapper"><span class="timestamp">[2021-06-03 Thu 16:37]</span></span>


<a id="orgcecf9fb"></a>

### DONE Academic Integrity

-   CLOSING NOTE <span class="timestamp-wrapper"><span class="timestamp">[2021-06-03 Thu 16:37]</span></span>

:LOGBOOK:
END:


<a id="org1dead8f"></a>

### DONE Turnitin and Academic Writing

-   CLOSING NOTE <span class="timestamp-wrapper"><span class="timestamp">[2021-06-04 Fri 13:16]</span></span>


<a id="org48d9996"></a>

## CORE UNITS


<a id="org741daed"></a>

### XGR501     :xgr501:OLcourse:

SCHEDULED: <span class="timestamp-wrapper"><span class="timestamp">&lt;2021-06-21 Mon&gt;</span></span>-<span class="timestamp-wrapper"><span class="timestamp">&lt;2021-09-09 Thu&gt;</span></span>

1.  [UTas Webpage General Course Info](https://www.utas.edu.au/courses/dvc-research/units/xgr501-introduction-to-higher-degree-by-research)

2.  Two-Day Initial Residency Component     :mylo:zoom:

    [Schedule](https://mylo.utas.edu.au/d2l/lms/news/main.d2l?ou=456486&d2l_change=0)
    
    1.  Online Residency Day 01
    
        [UTas Zoom Link](https://utas.zoom.us/j/83820294373)
        
        1.  DONE Watch XGR501 Residency Day 01 Recording
        
            -   CLOSING NOTE <span class="timestamp-wrapper"><span class="timestamp">[2021-07-05 Mon 08:35]</span></span>
    
    2.  Online Residency Day 02
    
        [UTas Zoom Link](https://utas.zoom.us/j/83820294373)
        
        1.  DONE Watch XGR501 Residency Day 02 Recording
        
            -   participated in real-time

3.  DONE Enroll

    CLOSED: <span class="timestamp-wrapper"><span class="timestamp">[2021-05-21 Fri 14:30]</span></span>
    
    -   CLOSING NOTE <span class="timestamp-wrapper"><span class="timestamp">[2021-05-21 Fri 14:30] </span></span>   
        enrolled in Winter (Late) offering


<a id="orgf2f11b9"></a>

### XGR502     :xgr502:OLcourse:

[General Course Info](https://www.utas.edu.au/courses/dvc-research/units/xgr502-communicating-research)
enrol after [5.7.1.1](#org9e2edcb) submitted


<a id="org0617d85"></a>

### QMS510 (Intro to QMS)

[UTas Course Description](https://www.utas.edu.au/courses/cse/units/qms510-introduction-to-quantitative-marine-science)
Possible enrolment in Semester 1 of 2022 with a start date of <span class="timestamp-wrapper"><span class="timestamp">[2022-02-21 Mon]</span></span>

1.  TODO Enrol     :qms510:course:


<a id="org6863bbf"></a>

### QMS517 (Data Analysis Methods)

[UTas Course Description](https://www.utas.edu.au/courses/cse/units/qms517-data-analysis-methods)
Possible enrolment in Winter Semester 2022 with a start date of <span class="timestamp-wrapper"><span class="timestamp">[2022-05-30 Mon]</span></span>

1.  TODO Enrol     :qms517:course:


<a id="orga9398b1"></a>

## ELECTIVE UNITS


<a id="org539504e"></a>

### KSM310

[Course Description (PDF)](https://drive.google.com/file/d/15aDpU9iGqeOHztlSwot2An4c0BuUIWCI/view?usp=sharing)


<a id="org4c2e091"></a>

### Glacier Dynamics

not at IMAS **yet** but likely to develop course in the future [Elisa Mantelli](https://www.emantelli.com/)


<a id="org8010e22"></a>

## GRANT Seminar


<a id="orgedc8c11"></a>

# Meetings and Correspondence     :mtg:email:


<a id="orgb84a731"></a>

## Introduction to Andrew Kiss     :email:

Simple introductory email so that he's aware that I exist. Andrew
provided me with [PDF ARC Proposal of COSIMA](./reference/modelling/COSIMA_Hogg_ARC_submitted_220420_project_description.pdf) and this [GitHub gem](https://protect-au.mimecast.com/redirect/eNqtlm1vE0cQx7-Kda9je58frKrCcUBFhUCh9EXr6jT7ZB_47izfHhRQvnvnzgnYIbxLJCvend3Zmd_8d8dfi4Pf52JRBGiquJtB_gQ5Hp70GbpZDP0M-uKi2LW-WJCL4hB9rPY5V3UsFlQJoy23ghIy2NALuyggZ_DbqkktOv26vh3Xscndulj8gzOp2sVrqCMO18WL14wQdCCIKn9rN5ty-WZVdr2rq5xjKBkjgpFyf2jfR5_LEDt_wACqtpntQ1oXF-ui2wIdXfmgGLOMG-MIs1bp5JRXHDQPKTiXKNdAOVF3u5hU4z5KwbAEQInQngbijKKSgLUBiMPsRJSWOxqNVZ5rRbQQFh0mAyoEwePorw5ydOYsc4YJ5hMjNphoCQjGlOKeKc-IGxcf2ja_fewAsCZ_ft4fqcJ-v6s8DJzW82-gqi-D1QpNiLm5uF8J14bPs_xfPofKMaqkidYhgjLSC05d9AnDtITaQJQEQsHR-1AVNdHgKgUJrPCCyZAM8Y5hsb0mMXGu0YFjwbKoklU2QjISuLJeCkhnUC2mqglQaxIEKTTgWuZZSNFFQ8KDUB8ngFOoOSKc-X4HVXPKk0vGfkJzm-tzmkYq50NwVicRHRiJ5bNMaEaFBeGUodFLY-N9msCtSgSDI5RRH5lJSVusipPayog50gROckdC8EoKqwVoaZ1QLDnjuT2jCQIReglJRulBSktjEDYopy1eFMIfovk4AfxIEwntTmFKZeWPMPMBmq6uum649_FuxzeJ-oQoo9GesaA0F5RpD0CsC1EbrC8wYwyD-1CdNSwKn7glJpHACBeMS52Ijd4nS3jyzKL6Pep9mNXBR-mSi3ifgTt1BlUbQFlJis8NajQKjMTRoFlChSkZ4kNQHyeAU6h17DrYxPX8kLxhbNrl3rkYTglTYqW--fcGX_VQ4Xs-vP3PGxztqzBY9UXhumKhOc4AvvrFavnOLo3AFTAuXm2j__DuzYvjBFYE55be47CrodviSCUlPXHUexcBBGqMO5Q93jyvMTUbtEGZkTBsacIBdwD-i59mH7DET6Dpvzce7ATv0f4mLiavt1eTt7kP2EkmVfMxdrna4AvXbCbPoMuT5z5O6jbE3Q6ncGeu88u2b8LgvceOVtNiyMyfpzQ0v--9CnFU--qkVTV3Crwau-NkeeyOI89YQ7UbjT9vnePC0Nbjk4Erz0zHIsRu4K4kExz_KD8y-R7TtxCWI6PJ78jo3vkP07t_9j1LtR9nBZlhzfFj8CNHy7bt8lFNeMC0jhz6jtC2Ybhg1vbZDVhn2JJzHOs_zO3a9sPMt_jc3RzZX2MpMAHsNDiu9vj1_CScrbvNkHrxi7lcrdilXE4v5dPLqTBcTC17djVlTxVZsqW4skt9ktivw96j0DMqtWBk-JVAKNUU7wz-lkB7f9ihZZvzvlus5-v5psrb3o0Rzlev3j5_uVzPwXv0Mm1rtp4juj526zl27qEmg843pZ_GEnpCS11-DHpKWXkrnPLuyJKUt-KaYqZTLSzX2rIxvU0_Zvdq9Vcp4cunV82KXYv-79cmbF_8gXbfd7mt48EfSZ1oMm6Ot-oW8RT62XDLPcp8yKC4-R8alOfF) of a
link 


<a id="org2ff404c"></a>

## <span class="timestamp-wrapper"><span class="timestamp">[2022-03-31 Thu]</span></span>

Meeting with Alex, Will and Paul


<a id="orge0e4408"></a>

### Discussion Topics:

-   immediate investigations into CICE and sandboxing
-   literature review paper in compliance with XGR502 – a revision and expansion of my XGR501 document, which went beyond the requirements of that course
-   revised 2022 schedule, with hands on
-   PhD work plan integrated into work and annual leave plan
    -   travel engage Wen
        -   how to form fast ice in icepack
            -   can it withstand an offshore wind
            -   what is the low hanging fruit without an ocean
            -   test that we don't get fast ice breakout without waves ; this might be done in a prescribed manner


<a id="org0e65613"></a>

## With Laura H-B

MEOP data specifically discussed with
post-doc 
Investigator deployments
Nuyina deployments


<a id="org2bc384e"></a>

## Nicole Hill potential PhD project     :mtg:

<span class="timestamp-wrapper"><span class="timestamp">&lt;2021-05-20 Thu 10:30&gt;&#x2013;&lt;2021-05-20 Thu 11:15&gt;</span></span>
Benthic
Originally interested incorportating the ROMS model
Would like to get where icebergs have been in the recent past
PhD project put together for effects on sedimentation
At 10nm icebergs get named
Scouring of icebergs form imagery is highly uncertain
Shadow of iceberg to indentify grounded icebergs


<a id="org94ba2a5"></a>

## People To Meet In Hobart     :mtg:hobart:


<a id="org002ac43"></a>

### Staff     :ppl:mtg:hobart:

-   Annie Foppert
-   Ben Galton-Fenzi (will probably still be on zoom)
-   Nathan B
-   Wen t-H
-   Steve Rintoul
-   Max N
-   Pat Wongpan
-   Petra Heil
-   Rob Massom
-   Klaus Meiners
-   Ed Dodderidge
-   Laura Herraiz-Borreguero


<a id="org41ee883"></a>

### Students     :ppl:mtg:hobart:

-   Zhaohui Wang
-   Tian Tian
-   Matt Corkill
-   Denisse Fiero Arcos
-   Devi Veytia
-   Guillaume Liniger


<a id="orgd9ed506"></a>

## IMAS Monthly Sea Ice

<span class="timestamp-wrapper"><span class="timestamp">&lt;2021-05-10 Mon 11:00 +4w&gt;&#x2013;&lt;2021-05-10 Mon 12:00 +4w&gt;</span></span>
[Zoom In](https://utas.zoom.us/j/89647011945?from=addon)


<a id="org27f0060"></a>

### Jul21

1.  Updates

    -   COSIMA Oct/Nov workshop reminder
    -   Wang's paper submitted

2.  Presentation

3.  Antarctic Sea Ice Predictability and Ice-Ocean Interaction

    1.  Presenter
    
        Stephy Libera
    
    2.  Notes
    
        -   ACCESS-OM2-01


<a id="orge23e804"></a>

### Jun21

-   fascinating presentation on
    [BAMS 2019 State of The Climate](https://drive.google.com/file/d/1rdUApYikEpPg3CeARsNYcSrEY12L6hk_/view?usp=sharing) given by Phil Reid looking at Sea Ice
    Excitement Index
-   late 2020 winter very negative SIA event around CDP
-   Phil interested in other papers of 1980 associated with Antarctic Sea Ice
-   Impact of MJO on Antarctic Sea Ice
    [link to paper](https://drive.google.com/file/d/1rSpl0DcHxBxu3uTS_e_1LwJSEd9eSzZS/view?usp=sharing)


<a id="orgde4b687"></a>

### May21     :zoom:

SCHEDULED:<span class="timestamp-wrapper"><span class="timestamp">&lt;2021-05-10 Mon 11:00&gt;&#x2013;&lt;2021-05-10 Mon 12:00&gt;</span></span>

1.  Antarctic Fast Ice presentation

    Alex gave an hour long presentation and highlight of recently accepted paper
    that looked at an 18 year period of satellite-mapped Fast Ice extent and novel
    correlation techniques. These correlation techniques elucidate a statistical
    categorisation of Fast Ice around Antarctica that appears to have physical
    significance and be more aligned with trends than with previous, more
    historical, geographical delineation of fast ice regional extent.
    
    He also provided an overview of where my PhD will be focused on.


<a id="org91141b9"></a>

## EAFIM Regular Meeting

<span class="timestamp-wrapper"><span class="timestamp">&lt;2021-05-21 Fri 09:00 +2w&gt;</span></span>
zoom meeting link <https://utas.zoom.us/j/84174022653>


<a id="org1979e60"></a>

### Agenda <span class="timestamp-wrapper"><span class="timestamp">[2021-08-13 Fri 14:00]&#x2013;[2021-08-13 Fri 15:00]</span></span>

1.  Research Plan

2.  ACCESS Attendance

3.  <http://www.dcrs.dtu.dk> image downloads

4.  ICSHMO 2022 Poster

5.  Laura Herraiz-Borreguero meeting <span class="timestamp-wrapper"><span class="timestamp">[2021-08-23 Mon 13:00]&#x2013;[2021-08-23 Mon 14:00]</span></span>


<a id="org2ef8400"></a>

## DONE PCC Welcome Meeting     :admin:

-   CLOSING NOTE <span class="timestamp-wrapper"><span class="timestamp">[2021-07-05 Mon 08:34]</span></span>

-   CLOSING NOTE <span class="timestamp-wrapper"><span class="timestamp">[2021-05-12 Wed 09:02]</span></span>

[X] emailed Karen on <span class="timestamp-wrapper"><span class="timestamp">&lt;2021-05-06 Thu&gt; </span></span> requesting meeting

-   check emails for Zoom information


<a id="org6af8cb7"></a>

### DONE Meet with PCC (Karen Alexander)

-   CLOSING NOTE <span class="timestamp-wrapper"><span class="timestamp">[2021-05-10 Mon 15:37] </span></span>   
    met discussed PCC


<a id="orgf22ca48"></a>

### Discuss following topics

1.  The role of the PCC

    -   [X] discussed

2.  The available UTAS support services

    -   [X] discussed


<a id="orgcee2f48"></a>

## GRC Welcome Meeting     :admin:

:PRIORITY: A
:DEADLINE: <span class="timestamp-wrapper"><span class="timestamp">&lt;2021-05-22 Sat&gt;</span></span>
:SCHEDULED: <span class="timestamp-wrapper"><span class="timestamp">&lt;2021-05-04 Tue 10:00&gt;</span></span>
:STATUS: nil
:COMPLETED: nil
:ASSIGN: Dan, Max


<a id="orga7484b5"></a>

### The role of the GRC

-   discussed


<a id="org437be5c"></a>

### The research plan, confirmation and annual review processes

-   discussed


<a id="org0b71482"></a>

### Leave entitlements

-   [X] discussed


<a id="orgd09b7a0"></a>

### Candidature timelines and scholarship requirements

-   [X] discussed


<a id="orgf2d5e72"></a>

### Access to iGrad and action items

-   [X] discussed


<a id="orgc83749f"></a>

### The Graduate Research website (forms, policies, procedures, etc.)

-   [X] discussed


<a id="org351ca63"></a>

### Meeting requirements and meeting records

-   [X] discussed


<a id="org6e81841"></a>

### Compulsory and elective course work

-   [X] discussed


<a id="org7423df4"></a>

## Supervisor Welcome Meeting     :admin:

:SCHEDULED: <span class="timestamp-wrapper"><span class="timestamp">&lt;2021-05-03 Mon 09:00&gt;&#x2013;&lt;2021-05-03 Mon 11:00&gt;</span></span>


<a id="org654de58"></a>

### Attendees

-   [X] Dan
-   [X] Alex
-   [X] Paul
-   [] Will
-   [X] Phil
-   [] Wilma


<a id="org07ef250"></a>

### Agenda

1.  Administrative Tasks

    1.  DONE HDR Commencement of Cadidature Form     :phd:admin:dan:alex:
    
        -   CLOSING NOTE <span class="timestamp-wrapper"><span class="timestamp">[2021-05-03 Mon 20:25] </span></span>   
            submitted via email
        
        [X] complete
        [X] Dan sign
        [X] Alex sign
        [X] submit [GRO CoSE](mailto:GraduateResearcg.CoSE@utas.edu.au)
    
    2.  DONE GRO Banking Details Form completed and submittd     :phd:admin:dan:
    
        -   CLOSING NOTE <span class="timestamp-wrapper"><span class="timestamp">[2021-05-03 Mon 20:26] </span></span>   
            submitted via email
        
        [X] complete
        [X] Dan sign
        [X] submit [GRO CoSE](mailto:GraduateResearch.CoSE@utas.edu.au)
    
    3.  DONE IMAS Student Checklist Remote Start (complete, sign, submit)     :phd:admin:dan:
    
        -   [X] complete (see [GDrive PDF](https://drive.google.com/file/d/1WUM0ZtpzSG2RPsk_n7yCUUA2wrmxeFAY/view?usp=sharing) and below)
        -   [X] Dan sign
        -   [] Alex sign
        -   [] submit to [Gail Eagle Group Inbox](mailto:IMAS.teaching-students@utas.edu.au)
        
        1.  DONE Read the online Commencing Candidates information [UTas HDR Commencement](https://www.utas.edu.au/research-admin/graduate-research/commencing-candidates) and the IMAS Postgarduate Student Information Booklet     :phd:admin:dan:
        
            -   CLOSING NOTE <span class="timestamp-wrapper"><span class="timestamp">[2021-04-30 Fri 11:44]</span></span>
            
            [X] complete
        
        2.  WAITING University laptop     :phd:admin:dan:alex:WAITING:
        
            -   State "WAITING"    from "TODO"       <span class="timestamp-wrapper"><span class="timestamp">[2021-05-06 Thu 16:07] </span></span>   
                see email thread
            -   speak to Gail Eagle
            -   MLCOA, hold-off on purchasing until necessary
            -   confirmed with Gail that funds can be held for 1-2 years until required
            -   see relevant email thread
        
        3.  DONE Meet with my supervisors and discuss     :phd:admin:dan:alex:
        
            1.  Their roles and expertise
            
                -   [X] discussed
            
            2.  Project details, available resources, work load, meeting requirements and producivity expectations
            
                -   [X] discussed
            
            3.  We have completed the Candidate/Supervisor Expectations Role Perception Scale [URL link to PDF](https://www.utas.edu.au/research-admin/graduate-research/commencing-candidates/resources-you-can-access)
            
                -   [X] [Dan'scompleted form](https://drive.google.com/file/d/1OJaGW32rN3kdsKpLyD0yAFmr-YKsiB0c/view?usp=sharing)
                -   [X] Alex completed form
            
            4.  Human and animal ethic requirements and procedures
            
                -   [X] discussed &#x2013; N/A
            
            5.  Funding for conferences and career development opportunies
            
                -   [X] discussed
            
            6.  Data storage requirements and resources
            
                -   [X] discussed
            
            7.  Work Health and Safety (WHS) regulations and requirements
            
                -   [X] discussed
            
            8.  Publication and authorship expectations
            
                -   [X] discussed
            
            9.  Introduced to the Centre Director and wider research team including other students in the team
            
                -   [X] discussed
            
            10. My primary supervisor has introduced me to another student who will act as my peer mentor
            
                -   [X] discussed
        
        4.  DONE Acknowledge that a Risk Assessment through Field Friendly must be completed before I commence my studies/work or enter the field
        
            -   CLOSING NOTE <span class="timestamp-wrapper"><span class="timestamp">[2021-05-06 Thu 16:12]</span></span>
            -   [X] discussed

2.  Temporal Structure

    1.  three-months FTE
    
        1.  Research Plan
        
            five-six plages
            bulk is literature
    
    2.  twelve-months FTE
    
        1.  Confirmation
        
            1.  Seminar
            
            2.  Written Work
            
            3.  Meetings
            
            4.  Progress
            
            5.  Cumpulsory Courses
            
                1.  XGR501
                
                2.  XGR502
            
            6.  Elective Courses
            
                1.  XGR505
                
                    this will not be applicable after discussing with Alex, and I'll need to find
                    another course later

3.  AAPP Top-Up Scholarship

4.  Supervisor Fund Pool

5.  Science

    1.  Setup of Curcivlinear
    
    2.  Ice Pump on Ice Shelf
    
    3.  The
    
    4.  METROMS
    
        benefit of ROMS has been coupled to ice shelves before
    
    5.  MOM
    
        global model being used by the BOM


<a id="org779b839"></a>

## Initial Meetings


<a id="orgb286c99"></a>

### Meeting with Alex Fraser and Paul Sandery

<span class="timestamp-wrapper"><span class="timestamp">&lt;2020-11-19 Thu&gt;</span></span>


<a id="org973709c"></a>

### met with Richard Matear and Paul Sandery

1.  Paul and I discussed the broad scope of the project being centred on most likely the [NEMO-LIM](https://www.nemo-ocean.eu)

2.  DEFERRED Download NEMO-LIM

    -   State "DEFERRED"   from "DEFERRED"   <span class="timestamp-wrapper"><span class="timestamp">[2021-04-19 Mon 21:15]</span></span>
    -   State "DEFERRED"   from "TODO"       <span class="timestamp-wrapper"><span class="timestamp">[2021-04-19 Mon 21:14]</span></span>

3.  DEFERRED Compile NEMO-LIM

    -   State "DEFERRED"   from "TODO"       <span class="timestamp-wrapper"><span class="timestamp">[2021-04-19 Mon 21:15]</span></span>

4.  DEFERRED Muck-around with NEMO-LIM

    -   State "DEFERRED"   from "TODO"       <span class="timestamp-wrapper"><span class="timestamp">[2021-04-19 Mon 21:15]</span></span>


<a id="orgd43d7d9"></a>

# Computing     :comp:


<a id="orgb7c7bb3"></a>

## GitHub


<a id="orga9b3948"></a>

### Repository Initialisation <span class="timestamp-wrapper"><span class="timestamp">[2021-07-05 Mon]</span></span>


<a id="org491500a"></a>

## CloudStor


<a id="orgd4081d5"></a>

## Remote Desktop     :vnc:remote_desktop:computer_admin:


<a id="org8cbe41f"></a>

### X2Go

[X2Go](https://wiki.x2go.org/doku.php/doc:newtox2go)


<a id="org51fbe8a"></a>

## Microsoft     :bookmark:office:

-   [Office 365](https://www.office.com/?auth=2&home=1)
-   [Analytics](https://myanalytics.microsoft.com)


<a id="orgaa13b89"></a>

## Tasmanian Partnership for Advancing Computing (TPAC)     :bookmark:


<a id="org0ab8eff"></a>

### Contact

[Ming](mailto:xiao.fu@utas.edu.au)


<a id="org50cff8d"></a>

### Nectar Cloud Starter Training

[online information](https://www.tpac.org.au/training/)

1.  DONE Work through this TPAC material

    <https://protect-au.mimecast.com/s/jYHACr8DKNfB6xBxh7U3m5?domain=tutorials.rc.nectar.org.au>

2.  DONE Register for one-day course

    -   CLOSING NOTE <span class="timestamp-wrapper"><span class="timestamp">[2021-05-10 Mon 17:07] </span></span>   
        interest has been registered; see email thread. No current course listings
        available. They will contact me once a date has been promulgated.
    -   CASE ID: INC0868693


<a id="orgb61a9dc"></a>

## National eResearch Colloboration Tools And Resources (NECTAR)     :bookmark:

[Homepage](https://nectar.org.au)


<a id="org4d4626b"></a>

### Compile METROMs in Sandbox


<a id="org95ade2a"></a>

### Attempting to login and play around

-   Stuck on remote login using SSH
-   success after ensuring that my Key Pair is associated with Instance at the

configuration of that Instance

-   logging in

    ssh -i ~/.ssh/ubuntu.pem ubuntu@115.146.85.105


<a id="org77931b0"></a>

### Training

[Self-paced online tutorials](https://tutorials.rc.nectar.org.au)

1.  TODO X11 Forwarding

2.  DONE Cloud Starter Series

    -   CLOSING NOTE <span class="timestamp-wrapper"><span class="timestamp">[2021-05-23 Sun 21:11]</span></span>
    
    DEADLINE: <span class="timestamp-wrapper"><span class="timestamp">&lt;2021-06-11 Fri&gt;</span></span>
    [website](https://tutorials.rc.nectar.org.au/cloud-starter/02-tutorials)
    
    1.  Security Groups, the absolute basics
    
        As of <span class="timestamp-wrapper"><span class="timestamp">[2021-05-23 Sun] </span></span> Cannot SSH into instance


<a id="orgfcacf38"></a>

### SEACLUB

Created new instance called *seaclub* for a lack of a better name and began
installing software


<a id="orgce66977"></a>

### SEACLUB IP     :seaclub:ip:address:

131.217.175.244


<a id="org24ef48b"></a>

### Linked **CLOUDSTOR** to *seaclub*

1.  Steps

    1.  login into **CLOUDSTOR** and go user settings
    2.  generate an *app* password
    3.  copy password to notepad
    4.  open *ssh* to *seaclub* or whatever the name of the NECTAR machine is and run
        the command `cloudstor-setup` and following the bouncing ball


<a id="orgb80d107"></a>

### Installed Software

1.  NetCDF

    `sudo apt-get install libnetcdf-dev libnetcdff-dev`

2.  ROMS

    1.  Logged into [ROMS](https://www.myroms.org) and followed [ROMS GIT Wiki](https://www.myroms.org/wiki/Git)
    2.  Created and stored login credentials securely via: `gpg --gen-key` and used
        `daniel.atwater@utas.edu.au` as my *host*
    3.  Then `curl -o ~/bin/git-credential-netrc https://raw.githubusercontent.com/git/git/master/contrib/credential/netrc/git-credential-netrc`
    4.  Created file `nano ~/.netrc` with this format:
        
            machine www.myroms.org
            login dpath2o
            password [PASSCODE]
            protocol https
    5.  Then ran the command `gpg -e -r daniel.atwater@utas.edu.au .netrc` and
        deleted `rm ~/.netrc`
    6.  Enabled `git` awareness of this new file via `git config --global credential.helper "netrc -f ~/.netrc.gpg -v"`
    7.  Cloned ROMS via `git clone https://dpath2o@www.myroms.org/git/src bin/ROMS`
    8.  In order to synchronize the Git and Subversion repository revision
        information, we have created a Git filter that will insert the git hash of
        the last time a file was modified, similar to the Subversion \(Id\) keyword. In
        order for the filter to work, it has to be explicitly enabled by the user.
        After the git clone command from above completes change into MyDir and
        execute the following:
        
            cd ~/bin/ROMS
            git config filter.id.smudge ".git_filters/id.smudge %f"
            git config filter.id.clean ".git_filters/id.clean %f"
            rm .git/index
            git checkout HEAD -- "$(git rev-parse --show-toplevel)"
            git config --global user.name "dpath2o"
            git config --global uers.email "dpath2o@mac.com"

3.  Anaconda

    1.  Created new environment *EAFIM*

4.  Texlive

5.  Python

    1.  Additional Libraries
    
        1.  PyGMT
        
        2.  GDAL
        
        3.  Cartopy
        
        4.  MetPy


<a id="orgd995fb4"></a>

## Kunanyi


<a id="org89406c9"></a>

# Affiliations and Linkages     :colab:


<a id="orgda243db"></a>

## Antarctic and Sea Ice Experts

-   Robert Massom
-   Petra Heil


<a id="org3f85e2a"></a>

## Modelling Experts

-   Phil Reid
-   Paul Sandery
-   Andrew Kiss


<a id="orgfa0b48b"></a>

## Institute of Low Temperature Science Hokkaido University

<http://www.lowtem.hokudai.ac.jp/en/index.html>


<a id="org23f7095"></a>

### Kay Ohshima     :moorings:CTD:data:source:

<http://www.lowtem.hokudai.ac.jp/wwwod/~ohshima/index_e.html>


<a id="orgc7870b2"></a>

## Australian Antarctic Program Project (AAPP)     :bookmark:

[Australian Antarctic Program Project](http://aappartnership.org.au)


<a id="org64a4ea0"></a>

### [372](#orgd95c39f) [Theme 3](https://aappartnership.org.au/theme-3/)

1.  Leaders

    -   Petra Heil
    -   [Phillip Boyd](https://www.utas.edu.au/profiles/staff/imas/philip-boyd)

2.  Project 6: Sea Ice

    1.  Leaders
    
        -   [Will Hobbs](https://aappartnership.org.au/our-researchers/#hobbs)
        -   [Klaus Meiners](https://www.antarctica.gov.au/science/meet-our-scientists/dr-klaus-meiners/)

3.  Associated PhD Projects

    1.  Zhaohui Wang
    
        analysisng effect of including realistic sea ice in a NWP


<a id="org51c4745"></a>

### Personnel

1.  AAPP Director

    1.  [Nathan Bindoff](mailto:n.bindoff@utas.edu.au)

2.  Specific Administration Manager

    1.  [Wenneke Ten Hout](mailto:wenneke.tenhout@utas.edu.au)

3.  General Administration

    1.  Clair Rutherford


<a id="orgb555a58"></a>

## Consortium on Ocean-Sea Ice Modelling in Australia (COSIMA)     :bookmark:

[COSIMA](http://cosima.org.au)


<a id="orgd07a217"></a>

### ARC plan proposal     :ref:pivotal:

[ARC plan proposal](./references/modelling/COSIMA_Hogg_ARC_submitted_220420_project_description.pdf)

